
     RDKit          3D

 14 14  0  0  0  0  0  0  0  0999 V2000
    1.8150   -1.4714   -0.3570 O   0  0  0  0  0  0  0  0  0  0  0  0
    0.6978   -0.6677   -0.1353 C   0  0  0  0  0  0  0  0  0  0  0  0
   -0.5479   -1.2517    0.1404 C   0  0  0  0  0  0  0  0  0  0  0  0
   -1.6683   -0.4460    0.3628 C   0  0  0  0  0  0  0  0  0  0  0  0
   -1.5508    0.9453    0.3111 C   0  0  0  0  0  0  0  0  0  0  0  0
   -0.3126    1.5332    0.0368 C   0  0  0  0  0  0  0  0  0  0  0  0
    0.8147    0.7334   -0.1871 C   0  0  0  0  0  0  0  0  0  0  0  0
    2.0377    1.3457   -0.4586 O   0  0  0  0  0  0  0  0  0  0  0  0
    1.7559   -2.4825   -0.3250 H   0  0  0  0  0  0  0  0  0  0  0  0
   -0.6481   -2.3288    0.1825 H   0  0  0  0  0  0  0  0  0  0  0  0
   -2.6276   -0.9002    0.5752 H   0  0  0  0  0  0  0  0  0  0  0  0
   -2.4191    1.5681    0.4834 H   0  0  0  0  0  0  0  0  0  0  0  0
   -0.2280    2.6119   -0.0019 H   0  0  0  0  0  0  0  0  0  0  0  0
    2.8812    0.8108   -0.6273 H   0  0  0  0  0  0  0  0  0  0  0  0
  1  2  1  0
  2  3  2  0
  3  4  1  0
  4  5  2  0
  5  6  1  0
  6  7  2  0
  7  8  1  0
  7  2  1  0
  1  9  1  0
  3 10  1  0
  4 11  1  0
  5 12  1  0
  6 13  1  0
  8 14  1  0
M  END
$$$$
