
     RDKit          3D

 16 16  0  0  0  0  0  0  0  0999 V2000
    2.4804    0.2364   -0.0512 C   0  0  0  0  0  0  0  0  0  0  0  0
    0.9882    0.0850   -0.0631 C   0  0  0  0  0  0  0  0  0  0  0  0
    0.1786    1.0016    0.6264 C   0  0  0  0  0  0  0  0  0  0  0  0
   -1.2102    0.8390    0.6459 C   0  0  0  0  0  0  0  0  0  0  0  0
   -1.8010   -0.2485   -0.0121 C   0  0  0  0  0  0  0  0  0  0  0  0
   -3.1833   -0.4207    0.0000 O   0  0  0  0  0  0  0  0  0  0  0  0
   -0.9955   -1.1728   -0.6855 C   0  0  0  0  0  0  0  0  0  0  0  0
    0.3936   -1.0121   -0.7062 C   0  0  0  0  0  0  0  0  0  0  0  0
    2.7649    1.3085    0.0094 H   0  0  0  0  0  0  0  0  0  0  0  0
    2.9243   -0.1845   -0.9785 H   0  0  0  0  0  0  0  0  0  0  0  0
    2.8988   -0.2995    0.8262 H   0  0  0  0  0  0  0  0  0  0  0  0
    0.6219    1.8412    1.1474 H   0  0  0  0  0  0  0  0  0  0  0  0
   -1.8253    1.5556    1.1752 H   0  0  0  0  0  0  0  0  0  0  0  0
   -3.7937    0.2307    0.4796 H   0  0  0  0  0  0  0  0  0  0  0  0
   -1.4460   -2.0183   -1.1897 H   0  0  0  0  0  0  0  0  0  0  0  0
    1.0043   -1.7417   -1.2237 H   0  0  0  0  0  0  0  0  0  0  0  0
  1  2  1  0
  2  3  1  0
  3  4  2  0
  4  5  1  0
  5  6  1  0
  5  7  2  0
  7  8  1  0
  8  2  2  0
  1  9  1  0
  1 10  1  0
  1 11  1  0
  3 12  1  0
  4 13  1  0
  6 14  1  0
  7 15  1  0
  8 16  1  0
M  END
$$$$
