
     RDKit          3D

 15 15  0  0  0  0  0  0  0  0999 V2000
   -3.0352    0.2303   -0.0940 O   0  0  0  0  0  0  0  0  0  0  0  0
   -1.6457    0.1392   -0.0535 C   0  0  0  0  0  0  0  0  0  0  0  0
   -0.8724    1.2871   -0.2479 C   0  0  0  0  0  0  0  0  0  0  0  0
    0.5234    1.2113   -0.2102 C   0  0  0  0  0  0  0  0  0  0  0  0
    1.1650   -0.0185    0.0234 C   0  0  0  0  0  0  0  0  0  0  0  0
    2.6018   -0.0945    0.0619 N   0  0  0  0  0  0  0  0  0  0  0  0
    3.1768   -1.1834    0.2689 O   0  0  0  0  0  0  0  0  0  0  0  0
    3.3671    1.0333   -0.1290 O   0  0  0  0  0  0  0  0  0  0  0  0
    0.3788   -1.1699    0.2182 C   0  0  0  0  0  0  0  0  0  0  0  0
   -1.0167   -1.0902    0.1798 C   0  0  0  0  0  0  0  0  0  0  0  0
   -3.6233   -0.5835    0.0432 H   0  0  0  0  0  0  0  0  0  0  0  0
   -1.3537    2.2399   -0.4287 H   0  0  0  0  0  0  0  0  0  0  0  0
    1.0995    2.1146   -0.3637 H   0  0  0  0  0  0  0  0  0  0  0  0
    0.8423   -2.1311    0.4002 H   0  0  0  0  0  0  0  0  0  0  0  0
   -1.6077   -1.9845    0.3314 H   0  0  0  0  0  0  0  0  0  0  0  0
  1  2  1  0
  2  3  1  0
  3  4  2  0
  4  5  1  0
  5  6  1  0
  6  7  2  0
  6  8  1  0
  5  9  2  0
  9 10  1  0
 10  2  2  0
  1 11  1  0
  3 12  1  0
  4 13  1  0
  9 14  1  0
 10 15  1  0
M  CHG  2   6   1   8  -1
M  END
$$$$
