
     RDKit          3D

 13 13  0  0  0  0  0  0  0  0999 V2000
    2.5103    0.0260   -0.1828 O   0  0  0  0  0  0  0  0  0  0  0  0
    1.1219    0.0393   -0.0700 C   0  0  0  0  0  0  0  0  0  0  0  0
    0.3603   -1.0660   -0.4781 C   0  0  0  0  0  0  0  0  0  0  0  0
   -1.0333   -1.0390   -0.3591 C   0  0  0  0  0  0  0  0  0  0  0  0
   -1.6692    0.0899    0.1669 C   0  0  0  0  0  0  0  0  0  0  0  0
   -0.9121    1.1928    0.5743 C   0  0  0  0  0  0  0  0  0  0  0  0
    0.4815    1.1677    0.4561 C   0  0  0  0  0  0  0  0  0  0  0  0
    3.0030   -0.7754   -0.5594 H   0  0  0  0  0  0  0  0  0  0  0  0
    0.8460   -1.9431   -0.8862 H   0  0  0  0  0  0  0  0  0  0  0  0
   -1.6197   -1.8924   -0.6744 H   0  0  0  0  0  0  0  0  0  0  0  0
   -2.7475    0.1100    0.2586 H   0  0  0  0  0  0  0  0  0  0  0  0
   -1.4048    2.0664    0.9814 H   0  0  0  0  0  0  0  0  0  0  0  0
    1.0636    2.0238    0.7728 H   0  0  0  0  0  0  0  0  0  0  0  0
  1  2  1  0
  2  3  2  0
  3  4  1  0
  4  5  2  0
  5  6  1  0
  6  7  2  0
  7  2  1  0
  1  8  1  0
  3  9  1  0
  4 10  1  0
  5 11  1  0
  6 12  1  0
  7 13  1  0
M  END
$$$$
